Circuit: * C:\users\rohith\My Documents\Documents\LTSpiceRunFIles\Draft5.asc

Direct Newton iteration for .op point succeeded.
Ignoring empty pin current: Ix(u1:1)
Ignoring empty pin current: Ix(u1:2)
Ignoring empty pin current: Ix(u2:1)
Ignoring empty pin current: Ix(u2:2)
Ignoring empty pin current: Ix(u3:1)
Ignoring empty pin current: Ix(u3:2)
Ignoring empty pin current: Ix(u4:1)
Ignoring empty pin current: Ix(u4:2)
Ignoring empty pin current: Ix(u5:1)
Ignoring empty pin current: Ix(u5:2)
Ignoring empty pin current: Ix(u1:1)
Ignoring empty pin current: Ix(u1:2)
Ignoring empty pin current: Ix(u2:1)
Ignoring empty pin current: Ix(u2:2)
Ignoring empty pin current: Ix(u3:1)
Ignoring empty pin current: Ix(u3:2)
Ignoring empty pin current: Ix(u4:1)
Ignoring empty pin current: Ix(u4:2)
Ignoring empty pin current: Ix(u5:1)
Ignoring empty pin current: Ix(u5:2)

Date: Thu Aug 11 07:59:19 2016
Total elapsed time: 0.033 seconds.

tnom = 27
temp = 27
method = modified trap
totiter = 2149
traniter = 2146
tranpoints = 1074
accept = 1072
rejected = 2
matrix size = 12
fillins = 10
solver = Normal
Matrix Compiler1: 1.04 KB object code size  0.6/0.4/[0.3]
Matrix Compiler2: 1.04 KB object code size  0.3/0.4/[0.3]


