Circuit: * Z:\home\rohith\Documents\LTSpiceRunFIles\Draft6.asc

Error on line 5 : v2 n001 0 v
	 Unknown parameter "v"
WARNING: Node N003 is floating.
WARNING: Node N004 is floating.

V2: Missing value, assumed 0V @ DC

Date: Thu Sep 29 13:36:24 2016
Total elapsed time: 0.044 seconds.

tnom = 27
temp = 27
method = trap
totiter = 367
traniter = 0
tranpoints = 0
accept = 0
rejected = 0
matrix size = 6
fillins = 0
solver = Normal
Matrix Compiler1: 290 bytes object code size  0.3/0.3/[0.2]
Matrix Compiler2: 406 bytes object code size  0.3/0.3/[0.2]


