Circuit: * Z:\home\rohith\Documents\ltspice\Draft7.asc

Ignoring BSIM parameter XL
Ignoring BSIM parameter XW
Ignoring BSIM parameter CTA
Ignoring BSIM parameter CTP
Ignoring BSIM parameter PTA
Ignoring BSIM parameter PTP
Error on line 5 : v2 n002 0 v
	 Unknown parameter "v"
Error on line 970 : .model nmos nmos level = 49 lint = 4.e-08 tox = 4.e-09 vth0 = 0.3999 rdsw = 250 lmin=1.8e-7 lmax=1.8e-7 wmin=1.8e-7 wmax=1.0e-4 tref=27.0 version =3.1 xj= 6.0000000e-08 nch= 5.9500000e+17 lln= 1.0000000 lwn= 1.0000000 wln= 0.00 wwn= 0.00 ll= 0.00 lw= 0.00 lwl= 0.00 wint= 0.00 wl= 0.00 ww= 0.00 wwl= 0.00 mobmod= 1 binunit= 2 xl= 0 xw= 0 binflag= 0 dwg= 0.00 dwb= 0.00 k1= 0.5613000 k2= 1.0000000e-02 k3= 0.00 dvt0= 8.0000000 dvt1= 0.7500000 dvt2= 8.0000000e-03 dvt0w= 0.00 dvt1w= 0.00 dvt2w= 0.00 nlx= 1.6500000e-07 w0= 0.00 k3b= 0.00 ngate= 5.0000000e+20 vsat= 1.3800000e+05 ua= -7.0000000e-10 ub= 3.5000000e-18 uc= -5.2500000e-11 prwb= 0.00 prwg= 0.00 wr= 1.0000000 u0= 3.5000000e-02 a0= 1.1000000 keta= 4.0000000e-02 a1= 0.00 a2= 1.0000000 ags= -1.0000000e-02 b0= 0.00 b1= 0.00 voff= -0.12350000 nfactor= 0.9000000 cit= 0.00 cdsc= 0.00 cdscb= 0.00 cdscd= 0.00 eta0= 0.2200000 etab= 0.00 dsub= 0.8000000 pclm= 5.0000000e-02 pdiblc1= 1.2000000e-02 pdiblc2= 7.5000000e-03 pdiblcb= -1.3500000e-02 drout= 1.7999999e-02 pscbe1= 8.6600000e+08 pscbe2= 1.0000000e-20 pvag= -0.2800000 delta= 1.0000000e-02 alpha0= 0.00 beta0= 30.0000000 kt1= -0.3700000 kt2= -4.0000000e-02 at= 5.5000000e+04 ute= -1.4800000 ua1= 9.5829000e-10 ub1= -3.3473000e-19 uc1= 0.00 kt1l= 4.0000000e-09 prt= 0.00 cj= 0.00365 mj= 0.54 pb= 0.982 cjsw= 7.9e-10 mjsw= 0.31 php= 0.841 cta= 0 ctp= 0 pta= 0 ptp= 0 js=1.50e-08 jsw=2.50e-13 n=1.0 xti=3.0 cgdo=2.786e-10 cgso=2.786e-10 cgbo=0.0e+00 capmod= 2 nqsmod= 0 elm= 5 xpart= 1 cgsl= 1.6e-10 cgdl= 1.6e-10 ckappa= 2.886 cf= 1.069e-10 clc= 0.0000001 cle= 0.6 dlc= 4e-08 dwc= 0 vfbcv= -1
	* Unrecognized parameter "tref" -- ignored
	* Unrecognized parameter "binflag" -- ignored
WARNING: Node N003 is floating.
WARNING: Node N005 is floating.

WARNING: Less than two connections to node N003.  This node is used by M1.
WARNING: Less than two connections to node N005.  This node is used by M2.
Warning: Pd = 0 is less than W.
Warning: Ps = 0 is less than W.
Warning: Pd = 0 is less than W.
Warning: Ps = 0 is less than W.
V2: Missing value, assumed 0V @ DC

Date: Thu Oct 20 14:27:53 2016
Total elapsed time: 0.053 seconds.

tnom = 27
temp = 27
method = trap
totiter = 524
traniter = 0
tranpoints = 0
accept = 0
rejected = 0
matrix size = 9
fillins = 2
solver = Normal
Matrix Compiler1: 394 bytes object code size  0.4/0.3/[0.3]
Matrix Compiler2: 755 bytes object code size  0.4/0.4/[0.3]


