Circuit: * Z:\home\rohith\Documents\LTSpiceRunFIles\Draft2.asc

Ignoring empty pin current: Ix(u1:1)
Ignoring empty pin current: Ix(u1:2)

Date: Thu Aug 04 14:32:36 2016
Total elapsed time: 0.013 seconds.

tnom = 27
temp = 27
method = trap
totiter = 201
traniter = 0
tranpoints = 0
accept = 0
rejected = 0
matrix size = 5
fillins = 2
solver = Normal
Matrix Compiler1: 230 bytes object code size  0.3/0.2/[0.2]
Matrix Compiler2: 355 bytes object code size  0.2/0.3/[0.2]


